12
OCc1noc(=O)[nH]1
O          2.96299       -0.89649       -0.82975
C          2.33949        0.03765        0.03959
C          2.88246       -0.10372        1.43390
N          3.08409        0.86689        2.25916
O          3.59348        0.23520        3.44009
C          3.64036       -1.11013        3.16493
O          4.04382       -1.97632        3.92338
N          3.18012       -1.30358        1.92159
H          3.84681       -0.54306       -1.03918
H          1.26568       -0.16941        0.05932
H          2.49982        1.05266       -0.33525
H          3.13046       -2.18918        1.44673
