15
OCc1c(O)[nH]c(=O)[nH]1
O          3.54335       -0.65787       -0.57317
C          2.35982        0.03958       -0.20317
C          2.72430        1.35907        0.37426
C          2.20716        2.58849        0.19363
O          1.18521        3.02583       -0.57306
N          2.89523        3.48848        0.94841
C          3.91744        2.82602        1.63602
O          4.74539        3.30603        2.38586
N          3.77521        1.48376        1.26230
H          3.26637       -1.51597       -0.93621
H          1.82461       -0.56063        0.53941
H          1.73006        0.14981       -1.09094
H          0.85055        2.27833       -1.09303
H          2.72475        4.47919        0.98909
H          4.40003        0.74167        1.54032
