15
COc1n[nH]c(O)c1O
C          1.29525       -0.37110       -0.58177
O          2.25998        0.18473        0.29773
C          2.85500       -0.72121        1.10103
N          3.76146       -0.22068        1.94532
N          4.19634       -1.30176        2.61807
C          3.59993       -2.47702        2.23329
O          3.87012       -3.66942        2.75684
C          2.72105       -2.11687        1.24274
O          1.93388       -2.99509        0.59808
H          0.87740        0.44616       -1.17803
H          0.46878       -0.83003       -0.02849
H          1.75271       -1.08397       -1.27622
H          4.90424       -1.15751        3.32788
H          4.54870       -3.58195        3.44929
H          2.11059       -3.88378        0.96080
