12
Oc1n[nH]c(=O)nc1O
O          1.09165        0.01753       -0.04154
C          2.41396        0.10793       -0.04141
N          3.00194        1.25615       -0.04028
N          4.37271        1.17046       -0.03888
C          5.13061        0.00629       -0.03657
O          6.35469        0.09903       -0.03203
N          4.49282       -1.21169       -0.03956
C          3.20907       -1.17697       -0.04213
O          2.51328       -2.30923       -0.04631
H          0.72416        0.91606       -0.04046
H          4.89112        2.04296       -0.03712
H          3.14217       -3.05009       -0.04712
