15
Cn1cc2[nH]nnc2c1
C          1.01599        0.03533        0.07255
N          2.45770        0.05389        0.07280
C          3.28058        1.18128        0.07339
C          4.55480        0.77329        0.07295
N          5.82400        1.22482        0.07275
N          6.65934        0.10358        0.07177
N          5.87481       -1.04280        0.07136
C          4.57444       -0.60130        0.07218
C          3.29148       -1.08105        0.07184
H          0.64028        1.06136        0.07279
H          0.67835       -0.48686        0.97092
H          0.67869       -0.48630       -0.82628
H          2.85327        2.17502        0.07403
H          6.19690        2.16366        0.07269
H          2.88145       -2.08051        0.07081
