15
Nc1c2CC=Cn2nn1
N          1.07505       -0.04758       -0.02770
C          2.40511       -0.08869       -0.02307
C          3.19820       -1.18587       -0.02426
C          3.25109       -2.66317       -0.02951
C          4.76414       -2.91179       -0.02187
C          5.40330       -1.72298       -0.01534
N          4.47743       -0.69728       -0.01697
N          4.47298        0.64362       -0.01252
N          3.19288        1.03100       -0.01609
H          0.48575       -0.86957       -0.01818
H          0.59084        0.84331       -0.01457
H          2.79618       -3.08353       -0.93077
H          2.78548       -3.09049        0.86290
H          5.22542       -3.88777       -0.02171
H          6.45967       -1.51254       -0.00908
