15
Nc1c[nH]c2c1[nH]nc2
N          0.97150        0.10268       -0.02696
C          2.30488        0.08769       -0.02725
C          3.12087       -1.02014       -0.02800
N          4.44284       -0.62024       -0.02825
C          4.45389        0.74564       -0.02774
C          3.16852        1.19516       -0.02703
N          3.28121        2.56200       -0.02663
N          4.54761        3.07167       -0.02705
C          5.25616        1.92281       -0.02778
H          0.42212       -0.75112       -0.02779
H          0.41980        0.95314       -0.02703
H          2.88272       -2.07518       -0.02850
H          5.27198       -1.20105       -0.02889
H          2.49528        3.20037       -0.02636
H          6.33642        1.98921       -0.02847
