15
Nc1n[nH]c2c1[nH]cc2
N          1.15725       -0.02227       -0.02455
C          2.49097       -0.06497       -0.02478
N          3.19678       -1.20578       -0.02532
N          4.46252       -0.69948       -0.02558
C          4.57671        0.66862       -0.02524
C          3.29148        1.11488       -0.02468
N          3.30322        2.47864       -0.02449
C          4.62329        2.87655       -0.02508
C          5.45813        1.77131       -0.02552
H          0.64116       -0.89390       -0.02535
H          0.60984        0.82540       -0.02465
H          5.24492       -1.34249       -0.02642
H          2.47135        3.05502       -0.02400
H          4.86218        3.93255       -0.02518
H          6.53923        1.77441       -0.02609
