16
Cn1ncc2c1[nH]cc2
C          1.05219       -0.09533       -0.05314
N          2.49030       -0.02582       -0.05320
N          3.24022       -1.16854       -0.05370
C          4.51612       -0.72750       -0.05408
C          4.52740        0.64882       -0.05391
C          3.26091        1.08826       -0.05317
N          3.29081        2.44406       -0.05279
C          4.62928        2.82743       -0.05334
C          5.43214        1.68982       -0.05391
H          0.73488       -1.14108       -0.05344
H          0.68352        0.40699       -0.95082
H          0.68354        0.40650        0.84482
H          5.32677       -1.44227       -0.05455
H          2.49830        3.07374       -0.05224
H          4.88715        3.87818       -0.05319
H          6.51270        1.66390       -0.05439
