15
Nc1cn2cc[nH]c2n1
N          1.04393        0.08007        0.05054
C          2.37193        0.03371        0.05041
C          3.14343       -1.11070        0.04915
N          4.40482       -0.61770        0.04932
C          5.72502       -1.02738        0.04800
C          6.46052        0.10645        0.04879
N          5.60339        1.20154        0.05093
C          4.32994        0.75314        0.05092
N          3.10395        1.19331        0.05145
H          0.44796       -0.73641        0.04963
H          0.57394        0.97778        0.05122
H          2.91151       -2.16348        0.04799
H          6.02307       -2.06036        0.04635
H          7.53282        0.23710        0.04790
H          5.91333        2.16253        0.04985
