15
Nc1c2C=CCn2nn1
N          0.98573       -0.04084       -0.08444
C          2.31427        0.07121       -0.08260
C          3.04998        1.21648       -0.08142
C          3.09844        2.61818       -0.08100
C          4.39603        2.99576       -0.07877
C          5.32247        1.78699       -0.07780
N          4.32665        0.75120       -0.07994
N          4.42434       -0.57252       -0.07923
N          3.16177       -1.01784       -0.08107
H          0.36164        0.75475       -0.08052
H          0.54808       -0.95455       -0.08026
H          2.23593        3.26936       -0.08212
H          4.74567        4.01761       -0.07780
H          5.92090        1.71776        0.83261
H          5.92411        1.71869       -0.98603
