15
Cn1nnc2c[nH]cc12
C          0.94967        0.08613       -0.08729
N          2.35740       -0.16238       -0.08701
N          3.31601        0.85476       -0.08458
N          4.57921        0.27568       -0.08369
C          4.36441       -1.08157       -0.08550
C          5.06157       -2.25973       -0.08545
N          4.09445       -3.28706       -0.08772
C          2.83853       -2.66914       -0.08897
C          3.01367       -1.34263       -0.08738
H          0.76967        1.16382       -0.08699
H          0.51495       -0.36202        0.80946
H          0.51537       -0.36141       -0.98457
H          6.11598       -2.49322       -0.08403
H          4.28199       -4.28297       -0.08823
H          1.94134       -3.27250       -0.09064
