17
14.xyz
C         -1.23616       -0.70350       -0.01874
C         -0.03638       -1.39721        0.09411
C          1.15119       -0.67599        0.13614
N          1.18579        0.67642        0.05740
C          0.00962        1.33787       -0.06179
C         -1.21686        0.68472       -0.09290
C          0.06914        2.83362       -0.14308
C          2.47161       -1.37208        0.27232
H         -2.17939       -1.24089       -0.04765
H         -0.03553       -2.48049        0.15158
H         -2.14350        1.24321       -0.17819
H          1.10381        3.17717       -0.24184
H         -0.35623        3.27718        0.76234
H         -0.48899        3.18984       -1.01475
H          2.35094       -2.45469        0.37864
H          2.99699       -1.00065        1.15756
H          3.08616       -1.18045       -0.61254
