16
C1Nc2c([nH]cn2)C=C1
C          2.13807        0.72478       -0.02185
N          0.84119        1.39525        0.02316
C         -0.28680        0.68255        0.00937
C         -0.24764       -0.68141        0.00339
N         -1.54857       -1.07504       -0.00232
C         -2.29967        0.07920       -0.00200
N         -1.54829        1.16531        0.00382
C          0.88971       -1.49638        0.00456
C          2.04465       -0.80131       -0.00495
H          2.73312        1.05018        0.83829
H          2.66665        1.03334       -0.93041
H          0.81448        2.40540       -0.00773
H         -1.90573       -2.01945       -0.00572
H         -3.38096        0.05970       -0.00536
H          0.84834       -2.57807        0.01294
H          2.98880       -1.33699       -0.00355
