15
[NH][C]1NCc2c1nc[nH]2
N          1.00767       -0.01305        0.02102
C          2.28407       -0.05730        0.02473
N          3.14410       -1.14215        0.02695
C          4.57570       -0.78573        0.03413
C          4.45897        0.67200        0.03289
C          3.15999        1.09200        0.02775
N          3.08276        2.44660        0.02646
C          4.34813        2.83642        0.03059
N          5.23344        1.77485        0.03469
H          0.64204       -0.96454        0.02041
H          2.83356       -2.09937        0.02192
H          5.07037       -1.16862       -0.86201
H          5.05992       -1.16734        0.93650
H          4.68864        3.86357        0.03076
H          6.24268        1.84148        0.03795
