16
Cn1ccc2c1[nH]cn2
C          1.01141       -0.05328       -0.06275
N          2.45276       -0.04133       -0.06276
C          3.27585       -1.15458       -0.06338
C          4.60032       -0.72718       -0.06333
C          4.53397        0.66150       -0.06279
C          3.24478        1.05748       -0.06252
N          3.28026        2.41269       -0.06216
C          4.61954        2.75091       -0.06237
N          5.40690        1.68744       -0.06266
H          0.65289       -1.08553       -0.06308
H          0.66233        0.46277       -0.96070
H          0.66227        0.46221        0.83551
H          2.86017       -2.15367       -0.06391
H          5.48249       -1.34988       -0.06380
H          2.50216        3.05721       -0.06202
H          4.94922        3.78114       -0.06237
