16
Cc1nc2c([nH]1)cc[nH]2
C          1.11167       -0.03355       -0.00398
C          2.59487       -0.01404       -0.00394
N          3.37254        1.06378       -0.00307
C          4.60389        0.52695       -0.00410
C          4.64817       -0.81178       -0.00545
N          3.33646       -1.19034       -0.00516
C          6.00296       -1.21375       -0.00663
C          6.71700       -0.02022       -0.00598
N          5.84827        1.05419       -0.00431
H          0.71182        0.98495       -0.00368
H          0.73474       -0.54924        0.88460
H          0.73484       -0.54863       -0.89296
H          3.00122       -2.14332       -0.00603
H          6.41312       -2.21394       -0.00783
H          7.78487        0.15695       -0.00648
H          6.04102        2.04705       -0.00351
