15
NC1=NCc2c1nc[nH]2
N          0.98868       -0.09759       -0.10967
C          2.33407        0.02546       -0.03259
N          3.07853        1.09564        0.01717
C          4.54147        0.63776        0.06647
C          4.39715       -0.81192        0.06322
C          3.09956       -1.18037        0.00791
N          2.93892       -2.52106        0.02126
C          4.18816       -2.96904        0.05701
N          5.12497       -1.94614        0.07709
H          0.46793        0.71830        0.18435
H          0.61053       -0.99270        0.17947
H          5.00584        1.01815        0.97842
H          5.05698        1.01743       -0.81961
H          4.48572       -4.00802        0.06375
H          6.13068       -2.05243        0.09571
