16
Cc1cc2c([nH]1)nc[nH]2
C          1.00002        0.00309       -0.04232
C          2.47716        0.17106       -0.04229
C          3.24194        1.33766       -0.04158
C          4.58132        0.88901       -0.04214
C          4.57714       -0.45076       -0.04330
N          3.31460       -0.93156       -0.04326
N          5.78916       -1.03231       -0.04421
C          6.59393        0.02027       -0.04375
N          5.90643        1.22140       -0.04253
H          0.49590        0.97483       -0.04205
H          0.67588       -0.54776        0.84631
H          0.67591       -0.54719       -0.93132
H          2.87103        2.35350       -0.04069
H          3.08930       -1.91764       -0.04400
H          7.67606       -0.01317       -0.04429
H          6.27714        2.16105       -0.04204
