16
Cc1c[nH]c2c1[nH]cn2
C          0.96718        0.06291        0.07068
C          2.43916        0.03058        0.07078
C          3.32443       -1.04218        0.07013
N          4.62706       -0.58042        0.07018
C          4.54619        0.76923        0.07088
C          3.26814        1.17654        0.07113
N          3.35040        2.54050        0.07142
C          4.70259        2.83459        0.07111
N          5.46471        1.75072        0.07089
H          0.55060       -0.94941        0.07031
H          0.59185        0.58232       -0.81695
H          0.59163        0.58178        0.95853
H          3.13692       -2.10850        0.06944
H          5.49813       -1.09395        0.06954
H          2.56608        3.17685        0.07149
H          5.05978        3.85663        0.07094
