14
[nH]1cncc2ccnc12
N          0.91656       -1.34854       -0.00047
C          2.07667       -0.62450       -0.00214
N          2.14988        0.67635       -0.00310
C          0.93375        1.35527       -0.00238
C         -0.26583        0.76791       -0.00091
C         -1.63188        1.14323       -0.00005
C         -2.29926       -0.02409        0.00119
N         -1.50459       -1.16841        0.00137
C         -0.28264       -0.71061        0.00011
H          0.91982       -2.35682        0.00016
H          2.98847       -1.24349       -0.00273
H          1.00948        2.43900       -0.00323
H         -2.04075        2.13740       -0.00046
H         -3.37819       -0.12364        0.00192
