17
O[C@@H](C#N)[C@H]1[C@H]2CN1C2
O          2.05109       -0.58044        1.15880
C          2.47658        0.06159       -0.05482
C          1.36879        0.29466       -0.95126
N          0.48576        0.48044       -1.66580
C          3.22743        1.36422        0.28045
C          2.60553        2.81900        0.05525
C          3.58989        3.21704        1.18481
N          2.83299        1.90937        1.81132
C          1.57428        2.76576        1.24930
H          2.12652        0.09981        1.86278
H          3.17821       -0.63184       -0.53170
H          4.30982        1.23752        0.13579
H          2.51903        3.36357       -0.87456
H          3.42226        4.15239        1.73336
H          4.66875        3.09739        1.02948
H          1.33404        3.67510        1.80912
H          0.67764        2.16158        1.09452
