18
C[C@H]1O[C]([NH])[C@@H](O)[C@H]1O
C          1.10406        0.16215       -0.00376
C          2.61023       -0.00578       -0.11338
O          3.27752        1.06494        0.55387
C          4.41928        0.55644        1.04807
N          5.41684        1.32153        1.35510
C          4.41740       -0.93605        1.16884
O          5.49733       -1.53177        0.45634
C          3.09351       -1.30747        0.51790
O          3.25320       -2.30836       -0.49130
H          0.79334        1.11617       -0.44134
H          0.78294        0.17411        1.04331
H          0.58292       -0.64876       -0.52243
H          2.88636        0.04417       -1.17517
H          5.12411        2.28536        1.14711
H          4.44861       -1.21975        2.22587
H          6.23579       -0.89371        0.51392
H          2.38806       -1.68459        1.26675
H          4.22405       -2.39167       -0.62036
