18
CN=C1OC[C@@H](O)[C@H]1O
C          1.13964       -0.12861        0.09892
N          2.59714       -0.11529        0.04457
C          3.18236       -0.26529        1.18946
O          2.53575       -0.44071        2.35946
C          3.45961       -0.22373        3.42452
C          4.86418       -0.27513        2.85154
O          5.61982        0.84701        3.31815
C          4.67701       -0.25140        1.34356
O          5.27613        0.92437        0.80210
H          0.74504        0.14321       -0.88546
H          0.75093        0.60333        0.81631
H          0.76016       -1.12584        0.34612
H          3.31276       -1.00091        4.17982
H          3.23339        0.74463        3.88412
H          5.37943       -1.18650        3.17264
H          5.78740        1.39707        2.52120
H          5.09680       -1.14499        0.86751
H          4.66783        1.23874        0.10329
