19
Cc1cc(CCO)n[nH]1
C          0.83344       -0.10086        0.06863
C          2.30280        0.06754        0.09642
C          3.10632        1.18328        0.15363
C          4.42875        0.68601        0.15015
C          5.71271        1.45317        0.18674
C          6.56361        1.11189        1.41104
O          7.01198       -0.24205        1.38180
N          4.45186       -0.65216        0.10959
N          3.15536       -1.00118        0.05828
H          0.32769        0.87115        0.06753
H          0.49419       -0.65833        0.94674
H          0.52345       -0.64473       -0.82857
H          2.78468        2.21619        0.18934
H          5.49810        2.52841        0.18881
H          6.27525        1.23042       -0.72806
H          6.00912        1.27163        2.34157
H          7.45496        1.74687        1.43217
H          6.24001       -0.77192        1.08095
H          2.92423       -1.98492       -0.00064
