19
Cc1nn(CCO)cc1
C          0.49631        0.11610       -0.02220
C          1.95218       -0.16490       -0.03217
N          2.84231        0.82142       -0.20544
N          4.03673        0.19929       -0.12396
C          5.26036        0.97855       -0.21202
C          5.36908        1.72757       -1.53539
O          4.45762        2.82268       -1.59853
C          3.93424       -1.14791        0.05836
C          2.58719       -1.41841        0.12598
H          0.29272        1.19164       -0.00219
H          0.02750       -0.33140        0.86023
H          0.02249       -0.30536       -0.91428
H          6.10068        0.28532       -0.10087
H          5.25128        1.66825        0.63896
H          5.18051        1.07114       -2.39113
H          6.37640        2.14282       -1.63995
H          3.58071        2.46378       -1.33558
H          4.80109       -1.78738        0.13525
H          2.12439       -2.38266        0.27684
