13
Oc1c([nH]nc1)OC=O
O          1.09131       -0.88781       -0.03632
C          2.40302       -0.60416       -0.03095
C          2.99622        0.64093       -0.07940
N          4.34252        0.36226       -0.05744
N          4.64637       -0.94690        0.00057
C          3.44919       -1.53809        0.01991
O          2.61418        1.90832       -0.13562
C          1.31158        2.25138       -0.16615
O          0.33390        1.51933       -0.15848
H          0.55998       -0.06543       -0.11540
H          5.10555        1.02819       -0.08137
H          3.38299       -2.61689        0.06512
H          1.23774        3.35025       -0.20487
