14
18.xyz
C         -0.69713        1.20348        0.00043
C          0.69182        1.18597       -0.00053
C          1.30734       -0.05600       -0.00139
N          0.65218       -1.22872       -0.00071
C         -0.68610       -1.14622        0.00014
C         -1.41576        0.02023        0.00042
O         -1.30960       -2.35036        0.00134
O          2.66695       -0.16796       -0.00314
O         -1.39848        2.37368        0.00173
H          1.26857        2.10045       -0.00047
H         -2.49773        0.00703        0.00110
H         -0.53114       -2.93712        0.00198
H          3.04911        0.72076       -0.00773
H         -0.78240        3.12443        0.00444
