13
[nH]1cnc2c1ncnc2
N         -1.52545        1.08496        0.00045
C         -2.31203       -0.03537        0.00016
N         -1.59504       -1.14025       -0.00009
C         -0.28804       -0.71161        0.00060
C         -0.22529        0.67206        0.00116
N          0.86965        1.44712        0.00225
C          1.98794        0.69129        0.00287
N          2.08519       -0.65794        0.00218
C          0.93217       -1.37806        0.00095
H         -1.83246        2.04571        0.00044
H         -3.39309        0.01751        0.00023
H          2.92933        1.23352        0.00416
H          1.01661       -2.45665        0.00045
