16
Cc1ccc(O)nc1O
C          0.94301       -0.08239       -0.07171
C          2.43359       -0.06816        0.03880
C          3.16018        1.12330        0.04208
C          4.54909        1.08327        0.15618
C          5.15822       -0.15684        0.26523
O          6.51279       -0.26768        0.37873
N          4.49866       -1.32535        0.27001
C          3.16450       -1.24018        0.15826
O          2.55287       -2.45078        0.17314
H          0.54441        0.92571       -0.22684
H          0.49895       -0.48151        0.84585
H          0.62833       -0.69606       -0.92205
H          2.65373        2.08116       -0.04316
H          5.12076        2.00313        0.15941
H          6.89013        0.62298        0.35261
H          3.33846       -3.02085        0.26637
