16
Cc1cc(O)nc(O)c1
C          1.01567       -0.08750       -0.03801
C          2.51370       -0.07479       -0.03678
C          3.23315        1.12431       -0.03697
C          4.62058        1.06133       -0.03546
O          5.37464        2.19815       -0.03608
N          5.32867       -0.07902       -0.03338
C          4.60352       -1.20475       -0.03343
O          5.34881       -2.33739       -0.03081
C          3.22548       -1.27480       -0.03535
H          0.60592        0.92789       -0.03703
H          0.64182       -0.60109        0.85354
H          0.64320       -0.59902       -0.93132
H          2.71633        2.07688       -0.03807
H          4.77428        2.95705       -0.04055
H          6.23954       -1.94056       -0.02890
H          2.72796       -2.23779       -0.03535
