15
19.xyz
C         -1.27572       -0.11081        0.14546
C         -0.66126        1.13217        0.02076
C          0.71965        1.18387       -0.05637
N          1.51238        0.09288       -0.01806
C          0.89116       -1.09925        0.10261
C         -0.48458       -1.25344        0.18720
O         -2.64098       -0.07223        0.21546
C         -3.31284       -1.31825        0.35456
H         -1.24950        2.04208       -0.01508
H          1.23908        2.13261       -0.15382
H          1.55159       -1.96149        0.13073
H         -0.89409       -2.25025        0.28185
H         -4.38719       -1.11561        0.40024
H         -3.02784       -1.81825        1.28615
H         -3.13155       -1.96290       -0.51182
