13
Oc1nccc(O)c1F
O          0.91022        0.09265       -0.17246
C          2.25367       -0.01150       -0.00571
N          2.86984        1.18180        0.11334
C          4.21051        1.13674        0.28676
C          4.94863       -0.03863        0.34772
C          4.26380       -1.24256        0.21873
O          4.92834       -2.43550        0.27039
C          2.88722       -1.23957        0.03645
F          2.20220       -2.38479       -0.09128
H          0.80709        1.06012       -0.14349
H          4.69642        2.10492        0.38015
H          6.02140        0.00257        0.49207
H          5.87686       -2.27895        0.40577
