16
Cc1c(O)ccnc1O
C          0.95649       -0.04432       -0.02565
C          2.44727        0.00826        0.09039
C          3.20912        1.16938        0.20697
O          2.68763        2.43193        0.21163
C          4.59417        1.10038        0.32885
C          5.19134       -0.14719        0.32504
N          4.50615       -1.30052        0.20129
C          3.17209       -1.17813        0.08881
O          2.54815       -2.37723       -0.03920
H          0.48215        0.93797        0.02111
H          0.53781       -0.63722        0.79543
H          0.66799       -0.50067       -0.97841
H          1.73029        2.40082        0.06941
H          5.19015        2.00078        0.42388
H          6.26801       -0.25038        0.42313
H          3.32607       -2.96398       -0.01693
