17
COc1c(N)[nH]c(N)n1
C          2.35964       -1.29048        0.36658
O          2.10009        0.07449        0.06737
C          2.84964        0.90077        0.82988
C          2.76438        2.27442        0.71314
N          2.02666        3.09960       -0.05765
N          3.66196        2.74910        1.62835
C          4.23966        1.67330        2.24648
N          5.16337        1.83825        3.20281
N          3.77482        0.54217        1.78071
H          1.72441       -1.90355       -0.28001
H          2.10431       -1.52350        1.40647
H          3.40310       -1.55089        0.15630
H          1.48876        2.68555       -0.81868
H          2.27895        4.06836       -0.22414
H          3.86909        3.71485        1.81634
H          5.17421        2.67194        3.77791
H          5.39835        0.99647        3.72220
