16
Nc1cn2C=CCc2n1
N          1.10632       -0.10768        0.05247
C          2.43118       -0.02208        0.05404
C          3.17267        1.13917        0.05316
N          4.45001        0.68717        0.05536
C          5.73657        1.17973        0.05596
C          6.60631        0.14676        0.05877
C          5.82027       -1.17710        0.06014
C          4.41490       -0.67876        0.05754
N          3.19701       -1.15602        0.05689
H          0.48671        0.69071        0.05426
H          0.66476       -1.01935        0.05638
H          2.91027        2.18506        0.05115
H          5.93915        2.23851        0.05432
H          7.68346        0.21564        0.06001
H          6.04133       -1.75724        0.95996
H          6.04370       -1.76058       -0.83695
