13
Oc1nc2c([nH]1)nc[nH]2
O          1.00970       -0.07090       -0.04822
C          2.32356       -0.03612       -0.04802
N          3.00261        1.10095       -0.04732
C          4.26220        0.62877       -0.04781
C          4.36223       -0.69574       -0.04869
N          3.10158       -1.17661       -0.04885
N          5.62061       -1.16434       -0.04968
C          6.32136       -0.02978       -0.04945
N          5.52383        1.11045       -0.04826
H          0.78571        0.87763       -0.04777
H          2.82375       -2.14534       -0.04973
H          7.40237        0.04040       -0.05024
H          5.78593        2.08535       -0.04809
