16
Oc1cn2CCNc2n1
O          1.02414       -0.07213        0.00587
C          2.36144       -0.00988       -0.00013
C          3.06909        1.18037       -0.00068
N          4.34629        0.75765       -0.01263
C          5.66391        1.35149       -0.01021
C          6.56322        0.09119       -0.00543
N          5.64039       -1.03727       -0.06593
C          4.37881       -0.60016       -0.03201
N          3.18569       -1.11215       -0.00831
H          0.65417        0.82288       -0.00169
H          2.77484        2.21864        0.00466
H          5.78085        1.95706        0.89205
H          5.78242        1.95150       -0.91580
H          7.17225        0.04900        0.90385
H          7.23268        0.08542       -0.87196
H          5.91574       -2.00429        0.04492
