13
Nc1nc2c([nH]1)cno2
N          1.25440        0.23012        0.04479
C          2.56794        0.01709        0.04515
N          3.17283       -1.15390        0.04457
C          4.46744       -0.79341        0.04565
C          4.69459        0.52816        0.04696
N          3.44966        1.08383        0.04635
C          6.09261        0.65726        0.04839
N          6.72529       -0.52778        0.04786
O          5.65011       -1.46686        0.04606
H          0.63645       -0.57619        0.04485
H          0.79946        1.13313        0.04561
H          3.23331        2.06889        0.04686
H          6.69298        1.55584        0.04990
