14
Nc1nc2c([nH]nc2)[nH]1
N          1.01826        0.05191        0.01159
C          2.34990        0.11941        0.01180
N          3.08994        1.21180        0.01278
C          4.34711        0.72963        0.01199
C          4.40539       -0.61288        0.01072
N          5.71355       -0.94674        0.00979
N          6.51854        0.15279        0.01051
C          5.65399        1.19030        0.01182
N          3.11893       -1.03246        0.01075
H          0.49379        0.92120        0.01265
H          0.47017       -0.79710        0.01191
H          6.15127       -1.86245        0.00851
H          6.02839        2.20357        0.01242
H          2.76218       -1.97580        0.00973
