16
22.xyz
C         -0.53465       -1.18305        0.14156
C         -1.28109       -0.01344        0.00752
C         -0.61049        1.19371       -0.11056
N          0.73395        1.30732       -0.10390
C          1.40894        0.15570        0.02684
C          0.85151       -1.10000        0.15168
O          2.75650        0.30941        0.02913
O         -1.27496       -2.32772        0.25236
C         -0.55261       -3.54516        0.39816
H         -2.36505       -0.04547       -0.00411
H         -1.15688        2.12654       -0.21650
H          1.50145       -1.95779        0.25085
H          2.80932        1.27720       -0.07217
H         -1.28064       -4.35833        0.47621
H          0.04398       -3.54220        1.31641
H          0.07264       -3.74018       -0.47939
