11
24.xyz
C         -1.39056       -0.07505       -0.03495
C         -0.76617        1.16485       -0.00344
C          0.61483        1.18312        0.04782
N          1.37838        0.06912        0.07234
C          0.73471       -1.11842        0.04309
C         -0.64056       -1.24308       -0.01198
Cl        -3.10770       -0.16426       -0.10423
H         -1.33210        2.08830       -0.01882
H          1.16320        2.12086        0.07088
H          1.37737       -1.99398        0.06589
H         -1.10738       -2.22055       -0.03589
