10
3.xyz
N         -1.35290       -0.06846        0.14271
C         -0.73136        1.12564        0.06121
C          0.64207        1.24628       -0.02473
C          1.39919        0.08397       -0.02364
C          0.73366       -1.12340        0.06338
N         -0.60984       -1.20918        0.14382
H         -1.38404        1.99100        0.06850
H          1.11013        2.22148       -0.08970
H          2.48043        0.11785       -0.08775
H          1.26138       -2.07014        0.07243
