13
30.xyz
C         -0.75317        1.09984       -0.00935
C          0.63453        1.18914       -0.05137
N          1.41248        0.07754       -0.03262
C          0.75286       -1.10172        0.03006
C         -0.62787       -1.17909        0.07132
N         -1.41441       -0.08043        0.05377
C          1.32847        2.51081       -0.13903
H         -1.38308        1.98278       -0.02618
H          1.37122       -1.99190        0.04457
H         -1.14153       -2.13213        0.11857
H          0.62210        3.34466       -0.07753
H          1.86500        2.58514       -1.08988
H          2.04539        2.61178        0.68173
