13
34.xyz
N          0.28199       -0.73566        0.91858
C         -0.72216        0.09147        0.73582
N         -0.53570        0.87854       -0.36748
H         -1.16508        1.60107       -0.69223
C          0.65126        0.51590       -0.94117
C          1.13342       -0.51098       -0.15306
S          2.64132       -1.36094       -0.36866
O          2.36873       -2.74174       -0.05630
O          3.18204       -0.90273       -1.63075
O          3.50236       -0.73982        0.84903
H         -1.60115        0.17331        1.36275
H          1.04602        0.99533       -1.82637
H          3.14058       -1.11410        1.68163
