13
35.xyz
N         -1.37129       -0.03143       -0.01700
C         -0.69461        1.12281        0.06991
N          0.63854        1.24945        0.11019
C          1.33973        0.10424        0.05739
C          0.75616       -1.13834       -0.03258
C         -0.62976       -1.16996       -0.06795
C         -1.32590       -2.51799       -0.16830
F         -2.68642       -2.45266       -0.18038
F         -0.97533       -3.19909       -1.29876
F         -1.00211       -3.34658        0.86787
H         -1.27841        2.03612        0.11130
H          2.41975        0.21847        0.09055
H          1.35452       -2.04047       -0.07318
