14
38.xyz
N         -1.26774        0.07927        0.07830
C         -0.53493        1.20307        0.00777
N          0.80030        1.26375       -0.05765
C          1.40103        0.04279       -0.03515
C          0.77140       -1.17618        0.02428
C         -0.59469       -1.09096        0.08301
S          3.17548        0.13796       -0.15393
O          3.69698       -0.01161        1.18760
O          3.58372       -0.72571       -1.24136
O          3.42979        1.67285       -0.61308
H         -1.07996        2.14161        0.00205
H          1.30297       -2.11721        0.02169
H         -1.21492       -1.98212        0.13521
H          2.62303        2.19465       -0.39668
