11
39.xyz
N         -1.32798       -0.04863        0.07233
C         -0.63254        1.10056        0.03946
N          0.70229        1.21558       -0.01762
C          1.35435        0.04917       -0.03899
C          0.77564       -1.19110       -0.00755
C         -0.59566       -1.17962        0.04719
O          2.70476        0.16980       -0.10206
H         -1.20656        2.02055        0.06088
H          1.35526       -2.10115       -0.02688
H         -1.16531       -2.10389        0.07226
H          2.79214        1.13987       -0.12176
