13
40.xyz
N         -1.35297       -0.08139        0.16153
C         -0.72716        1.10832        0.04958
C          0.64727        1.22153       -0.05381
C          1.39484        0.04361       -0.03889
C          0.72350       -1.15721        0.07690
N         -0.61792       -1.22727        0.17520
C          1.29764        2.56035       -0.17530
F          0.41612        3.59753       -0.18410
F          2.16076        2.81247        0.84653
F          2.02755        2.68102       -1.31786
H         -1.38689        1.97063        0.04693
H          2.47772        0.06115       -0.11593
H          1.24289       -2.10869        0.09479
