13
47.xyz
N         -0.70997        1.20895        0.08003
C          0.61874        1.16271        0.14495
N          1.37114        0.07518        0.01889
C          0.68100       -1.04259       -0.19042
N         -0.64653       -1.13529       -0.27647
C         -1.27932        0.02536       -0.13241
O          1.45850       -2.17370       -0.32150
C          0.70089       -3.35288       -0.55504
H          1.13613        2.10041        0.31681
H         -2.36216        0.00588       -0.19383
H          1.40258       -4.18773       -0.64664
H          0.14036       -3.28686       -1.49414
H          0.03423       -3.57146        0.28651
