13
49.xyz
N         -0.76051        1.20283       -0.00087
C          0.55997        1.08888       -0.01086
N          1.24454       -0.05824        0.00012
C          0.50182       -1.16695        0.02210
N         -0.82589       -1.21605        0.03413
C         -1.37063        0.01397        0.01967
S         -3.16918        0.02142        0.02662
O         -3.60061        0.23617        1.39395
O         -3.63795        0.84412       -1.07020
O         -3.55585       -1.51654       -0.33843
H          1.13867        2.00707       -0.02961
H          1.03674       -2.11171        0.03089
H         -2.87915       -2.11360        0.04837
