9
5.xyz
N         -0.67987        1.18824       -0.00095
C          0.65043        1.11641        0.00107
N          1.37650       -0.00053        0.00188
C          0.64914       -1.11664        0.00100
N         -0.68129       -1.18702       -0.00095
C         -1.28416        0.00096       -0.00203
H          1.19340        2.05544        0.00211
H          1.19106       -2.05626        0.00210
H         -2.36891        0.00157       -0.00395
