10
50.xyz
N         -0.37611        1.15663       -0.00047
C          0.86932        0.65923        0.00156
N          0.90829       -0.70888        0.00127
N         -0.35347       -1.11746       -0.00110
N         -1.07597        0.01017       -0.00222
H         -2.09183       -0.00586       -0.00467
C          2.08393        1.49069        0.00396
H          1.83953        2.55755        0.00614
H          2.68972        1.28249       -0.88323
H          2.68865        1.27865        0.89095
