10
51.xyz
N         -0.42247        1.14273       -0.00051
C          0.84471        0.66908        0.00193
N          0.88741       -0.70733        0.00083
N         -0.36892       -1.12857       -0.00237
N         -1.10624       -0.01287       -0.00306
H         -2.12281       -0.04416       -0.00538
C          2.09321        1.49556        0.00548
F          1.84962        2.83588        0.00598
F          2.86838        1.24931        1.09791
F          2.87342        1.25105       -1.08375
