17
57.xyz
N          0.87256        1.45146       -0.00759
C         -0.24963        0.71753       -0.00510
C         -0.36819       -0.65757        0.11483
C          0.83302       -1.36163        0.25022
N          2.00926       -0.67811        0.25530
C          1.95899        0.66477        0.12809
O          0.82499       -2.73720        0.37635
C          2.12523       -3.29339        0.52308
N         -1.69824       -1.02852        0.07175
C         -2.36360        0.09804       -0.07062
N         -1.52815        1.17967       -0.12178
H         -1.79132        2.14775       -0.22600
H          2.91735        1.17665        0.13620
H          2.01561       -4.37795        0.61952
H          2.61390       -2.92657        1.43244
H          2.74271       -3.09904       -0.36075
H         -3.43942        0.19254       -0.14164
