17
60.xyz
N          0.88364        1.34654        0.06571
C         -0.23260        0.60644        0.00571
C         -0.32789       -0.77172       -0.03405
C          0.87594       -1.44922       -0.00976
N          2.05739       -0.77436        0.04832
C          1.98964        0.57089        0.08350
S          0.92821       -3.20905       -0.05118
O          0.93007       -3.60419       -1.44520
O          1.94504       -3.66397        0.87474
O         -0.50135       -3.67906        0.55847
N         -1.64494       -1.17686       -0.09341
C         -2.33503       -0.05272       -0.08919
N         -1.52262        1.05054       -0.02980
H         -1.80912        2.01873       -0.01532
H          2.94033        1.09601        0.13189
H         -1.23345       -3.18272        0.12202
H         -3.41444        0.03087       -0.12728
