17
61.xyz
N          0.86639        1.46914       -0.08060
C         -0.22400        0.68904        0.00097
C         -0.29220       -0.69794        0.03104
C          0.90677       -1.41772       -0.03698
C          2.08435       -0.64494       -0.11193
C          2.00745        0.74521       -0.13225
C          0.95145       -2.91052        0.00821
F          0.02236       -3.51999       -0.77634
F          2.15417       -3.40619       -0.41290
F          0.78203       -3.40544        1.26552
N         -1.59995       -1.10831        0.12905
C         -2.30981       -0.00007        0.15035
N         -1.51871        1.11229        0.07492
H         -1.81614        2.07560        0.07452
H          3.05849       -1.12686       -0.15484
H          2.91680        1.34052       -0.19249
H         -3.38840        0.05959        0.21870
