15
66.xyz
C         -0.75474        1.17592        0.00706
C          0.63605        1.25514        0.03297
C          1.39954        0.08915        0.00789
C          0.77244       -1.15702       -0.04575
C         -0.62429       -1.24672       -0.07303
C         -1.38305       -0.06939       -0.04628
C         -1.31111       -2.57786       -0.14909
H         -1.35137        2.08415        0.02614
H          1.12524        2.22465        0.07144
H          2.48427        0.14996        0.02789
H          1.38279       -2.05679       -0.06728
H         -2.46933       -0.11768       -0.06876
H         -0.59416       -3.40359       -0.09384
H         -1.85518       -2.66546       -1.09495
H         -2.01400       -2.69017        0.68273
