13
68.xyz
C         -0.76371        1.16073        0.00301
C          0.62964        1.23104        0.00939
C          1.38862        0.05911       -0.00113
C          0.75536       -1.18468       -0.02110
C         -0.63523       -1.24353       -0.03081
C         -1.39845       -0.08098       -0.01621
O         -1.29563       -2.43628       -0.05698
H         -1.35590        2.07196        0.01207
H          1.12419        2.19892        0.02296
H          2.47384        0.11696        0.00576
H          1.35764       -2.08732       -0.02805
H         -2.48263       -0.14256       -0.02188
H         -0.63888       -3.15022       -0.10083
