13
71.xyz
C         -0.64116       -1.24545       -0.02267
C         -1.41583       -0.08765       -0.06101
C         -0.72833        1.12224        0.03406
N          0.62121        1.24807        0.05246
C          1.32910        0.10054        0.02892
C          0.75015       -1.15695        0.00071
N         -2.80993       -0.16118        0.04534
H         -1.11244       -2.22379       -0.00933
H         -1.26660        2.06338        0.09933
H          2.40836        0.22053        0.04898
H          1.36562       -2.04917        0.01117
H         -3.20453       -1.01417       -0.33941
H         -3.29141        0.66749       -0.29184
