12
74.xyz
C         -0.78048        1.11711        0.09980
C          0.60742        1.24243        0.04886
N          1.40211        0.15801       -0.00208
C          0.76734       -1.03883       -0.01112
C         -0.61191       -1.15484        0.02660
N         -1.42308       -0.07739        0.07964
N          1.24188        2.48224        0.08520
H         -1.41955        1.99033        0.16506
H          1.40680       -1.91328       -0.04911
H         -1.10144       -2.12178        0.01835
H          0.90143        3.10049       -0.64217
H          2.23964        2.30522       -0.00819
