11
75.xyz
N         -0.66471        1.15447        0.04550
C          0.66243        1.08920        0.01013
N          1.39211       -0.02283       -0.05650
C          0.68588       -1.14390       -0.11001
N         -0.63728       -1.21518       -0.05924
C         -1.25363       -0.03656        0.00754
N          1.38313       -2.33037       -0.20353
H          1.20265        2.02890        0.03689
H         -2.33750       -0.05106        0.03211
H          2.32154       -2.22204        0.15420
H          0.83115       -3.09777        0.15248
