9
77.xyz
N         -0.37023        1.16844       -0.00047
C          0.87237        0.68862        0.00068
N          0.92757       -0.67740        0.00047
N         -0.32841       -1.10458       -0.00127
N         -1.05829        0.01748       -0.00202
H         -2.07382       -0.00660       -0.00386
N          1.98404        1.41570        0.00164
H          1.94124        2.42445        0.00570
H          2.89664        0.98324        0.00542
