15
78.xyz
N          0.84046        1.44695        0.00200
C         -0.25054        0.66516        0.00101
C         -0.30521       -0.71844        0.00052
C          0.91845       -1.37790        0.00086
N          2.06750       -0.65162        0.00200
C          1.96280        0.69726        0.00261
N         -1.60818       -1.15575       -0.00002
C         -2.33234       -0.06199        0.00013
N         -1.55437        1.06487        0.00039
H         -1.87535        2.01826        0.00042
N         -3.66322        0.01941       -0.00001
H          1.00866       -2.45606        0.00044
H          2.90132        1.24442        0.00381
H         -4.20247       -0.84118        0.00207
H         -4.20127        0.87631        0.00237
