15
80.xyz
N          0.90770        1.45174       -0.05754
C         -0.18927        0.68304       -0.01337
C         -0.25456       -0.69713        0.01165
C          0.96629       -1.35637        0.00155
N          2.11385       -0.62845       -0.05193
C          2.02964        0.71477       -0.10329
N          3.22521        1.40009       -0.18933
N         -1.56102       -1.12481        0.03868
C         -2.27639       -0.01928        0.02191
N         -1.48808        1.10045        0.00449
H         -1.79330        2.06094       -0.01034
H          1.05960       -2.43379        0.02314
H          3.97586        0.82411        0.16470
H          3.12665        2.33018        0.18929
H         -3.35772        0.03558        0.02019
