13
83.xyz
C         -0.61381       -1.25753       -0.17767
C         -1.37987       -0.09505       -0.05883
C         -0.73803        1.11722        0.14293
N          0.61079        1.23289        0.23165
C          1.33396        0.09546        0.11399
C          0.77329       -1.15751       -0.08891
N         -2.83172       -0.14140       -0.14377
O         -3.36078       -1.24543       -0.33521
O         -3.45225        0.92350       -0.01986
H         -1.07476       -2.22944       -0.33644
H         -1.27730        2.05594        0.24306
H          2.41109        0.22195        0.18958
H          1.40428       -2.03611       -0.17583
