13
84.xyz
C         -1.37527       -0.07822       -0.06968
C         -0.76016        1.16430        0.08958
C          0.61825        1.18016        0.16668
N          1.38347        0.06902        0.09633
C          0.75434       -1.11655       -0.05793
C         -0.61725       -1.24745       -0.14630
N         -2.83546       -0.15615       -0.15754
O         -3.47402        0.90299       -0.08185
O         -3.34443       -1.27653       -0.30229
H         -1.32077        2.09087        0.15247
H          1.16484        2.11150        0.29071
H          1.40751       -1.98385       -0.10976
H         -1.06487       -2.22784       -0.26986
