12
87.xyz
N          1.20125       -0.66529       -0.16270
C          0.04688       -1.35370        0.02603
C         -1.16670       -0.68271        0.17305
C         -1.17536        0.70951        0.12314
C          0.02325        1.36686       -0.07046
N          1.18814        0.70671       -0.21106
N          0.03744       -2.82816        0.08137
O         -1.04995       -3.39907        0.26758
O          1.11999       -3.41378       -0.06196
H         -2.10071       -1.21652        0.32459
H         -2.09979        1.26688        0.23335
H          0.08758        2.44825       -0.11919
