11
89.xyz
N         -0.69292        1.19987       -0.00154
C          0.63349        1.14638        0.00090
N          1.36558        0.03951        0.00273
C          0.67114       -1.11755        0.00198
N         -0.67754       -1.16310       -0.00045
C         -1.28995        0.01421       -0.00210
N          1.43518       -2.41557        0.00397
O          2.67593       -2.35577        0.00619
O          0.78067       -3.47135        0.00328
H          1.16609        2.09212        0.00144
H         -2.37533        0.00758       -0.00407
