9
92.xyz
N         -0.38186        1.16122       -0.00047
C          0.86260        0.64796        0.00148
N          0.91239       -0.71595        0.00094
N         -0.35436       -1.11954       -0.00147
N         -1.08078        0.01127       -0.00222
H         -2.09851       -0.00797       -0.00402
N          2.04903        1.46801        0.00393
O          1.90467        2.70049        0.00442
O          3.14059        0.87897        0.00540
