15
93.xyz
N          0.86048        1.44097        0.00050
C         -0.22685        0.65744        0.00299
C         -0.27772       -0.72745        0.01118
C          0.96185       -1.36171        0.02328
N          2.11563       -0.62401        0.00708
C          1.99450        0.71557       -0.00055
N          0.91568       -2.80939        0.01987
O          0.53304       -3.37293        1.05640
O          1.31864       -3.38070       -1.00463
N         -1.59042       -1.15193       -0.00818
C         -2.31220       -0.05102       -0.01415
N         -1.52825        1.06946       -0.00658
H         -1.83870        2.02999       -0.01218
H          2.92327        1.28040       -0.00883
H         -3.39401       -0.00237       -0.02498
