16
96.xyz
N          0.83192        1.43377        0.15820
C         -0.24873        0.64131        0.06948
C         -0.29258       -0.74343       -0.06850
C          0.92669       -1.42611       -0.12490
C          2.09120       -0.65698       -0.03773
C          1.98791        0.72610        0.09860
N         -1.59013       -1.19224       -0.12530
C         -2.30742       -0.09006       -0.02250
N         -1.55167        1.03987        0.09704
H         -1.88941        1.98738        0.18812
N         -3.73613       -0.01784       -0.02896
O         -4.22283        1.11775        0.08164
O         -4.36991       -1.07265       -0.14239
H          0.95943       -2.50399       -0.23160
H          3.06680       -1.13120       -0.07577
H          2.88929        1.33267        0.16711
